LAMMPS (29 Oct 2020)
##################################################################
##IN.CLUSTER_ANNEAL_DATA					##
##Anneal and segregate already prepared amorphous cluster	##
##Dependencies	: none						##
##Influences: /data						##
##################################################################
## ver. : 2020-07-17, Syamal Praneeth Chilakalapudi, KIT, INT	##
##Author Email    :syamalpraneeth@gmail.com			##
##################################################################

#--------------------------------------------------------------VARIABLES FROM COMMAND LINE
variable        pot string Cu-Zr_4.eam.fs
next            args
variable        e1 string Cu
next            args
variable        e2 string Zr
next            args
variable        x equal 50
next            args
variable        y equal 50
variable        frac equal $y/($x+$y)
variable        frac equal 50/($x+$y)
variable        frac equal 50/(50+$y)
variable        frac equal 50/(50+50)
next            args
variable        T1 equal 2000
next            args
variable	heat_ramp equal 50

variable        th equal 2000/40
variable        df equal 2000/20

variable	lat equal 3.6				#lattice parameter to define spacings

variable	T_hot equal 2000
variable	T_cool equal 50
variable	T_heat equal 1000
variable	ht equal (1000-50)*((10^3)/(50))

variable        t1 equal 2000/10
variable        t equal 19000/25
variable        ht_inter equal (19000/10)

#--------------------------------------------------------------------------------INTIALISE
units           metal					#fundamental LAMMPS and MD conditions initialization
dimension       3
atom_style      atomic
boundary        p p p
lattice		bcc 3.6
Lattice spacing in x,y,z = 3.6000000 3.6000000 3.6000000

read_restart	../restart.msr_20
Reading restart file ...
  restart file = 29 Oct 2020, LAMMPS = 29 Oct 2020
  restoring atom style atomic from restart
  orthogonal box = (-32.899909 -32.894461 -32.901225) to (101.28037 101.28365 101.28218)
  pair style eam/fs stores no restart info
  135696 atoms
  read_restart CPU = 0.021 seconds

neigh_modify	every 1 delay 0 check yes

newton		on
pair_style	eam/fs					#EAM potentials best for metallic systems
pair_coeff      * * Cu-Zr_4.eam.fs Cu Zr Cu Zr
reset_timestep  0

info groups fixes variables regions

#-----------------------------------------------------------------FIXES FOR SUBSTRATE
fix             corint all property/atom i_int

#--------------------------------------------------------------------------------COMPUTES
compute         c1 all temp
compute_modify  c1 dynamic/dof yes extra/dof 0		#It seemed like a dynamic evaluation was better
compute		c2 all pe/atom

#--------------------------------------------------------------------------------THERMO
thermo_style    custom step pe ke press temp vol enthalpy density etotal #c_c5 c_c6 #c_c4
thermo_modify   format float "% .6e"
thermo_modify   temp c1
thermo          50
timestep        0.0010					#standard timestep 1fs for metallic systems

write_dump all custom dump_msr.atom id type x y z vx vy vz i_int
dump            d1 all custom 100 data/lammpstrj.dep.msr id type x y z vx vy vz i_int

#--------------------------------------------------------------------------------BALANCE AND EQUILIBRATE
comm_style	tiled					#to allow for rcb style (weighted balancing) of balancing of atoms across processors
balance		1.0 rcb out data/tmp.balance1_msr	#rebalance atoms on processors after deleting atoms outside sphere
Balancing ...
  update every 1 steps, delay 0 steps, check yes
 rebalancing time: 0.012 seconds
  iteration count = 0
  initial/final maximal load/proc = 4557.0000 4524.0000
  initial/final imbalance factor  = 1.0074726 1.0001769

#write_restart   data/restart.equilib_1_msr
#unfix		hold

#-------------------------------------------------------------------------------HEATING
variable	loopsiz equal 20
variable	dT equal (1000-50)/20
variable	Temp1 equal 50
variable	Temp2 equal 50+47.5
variable        tstop equal 0+19000

variable	hloop loop 20
label		l3
	fix     heat all npt temp 50 97.5 0.1 iso 0 0 0.1
	run	1900
Step PotEng KinEng Press Temp Volume Enthalpy Density TotEng
0 -6.747940e+05  8.765437e+02  1.711649e+01  4.997374e+01  2.415846e+06 -6.738916e+05  7.222804e+00 -6.739174e+05
Averages over the last 20 of 39 rows, steps 950 to 1900:
PotEng KinEng Press Temp Volume Enthalpy Density TotEng
-674326 1336.09 -21.0433 76.1735 2.41723e+06 -673022 7.21867 -672990
Loop time of 41.4871 on 30 procs for 1900 steps with 135696 atoms

	write_restart data/restart.heat_msr
System init for write_restart ...
	unfix	heat
	fix	rest all npt temp 97.5 97.5 0.1 iso 0 0 0.1
	run     2000
Step PotEng KinEng Press Temp Volume Enthalpy Density TotEng
1900 -6.740755e+05  1.583655e+03 -1.291018e+02  9.028775e+01  2.418152e+06 -6.726867e+05  7.215913e+00 -6.724918e+05
Averages over the last 21 of 41 rows, steps 2900 to 3900:
PotEng KinEng Press Temp Volume Enthalpy Density TotEng
-673940 1709.06 0.133612 97.4373 2.41835e+06 -672231 7.21533 -672231
Loop time of 43.365 on 30 procs for 2000 steps with 135696 atoms

	unfix	rest
Loop 1; succeeded temp 97.5 target 1000
	variable Temp1 equal 97.5
	variable Temp2 equal 97.5+47.5
next		hloop
jump		SELF l3
	fix     heat all npt temp 97.5 145 0.1 iso 0 0 0.1
	run	1900
Step PotEng KinEng Press Temp Volume Enthalpy Density TotEng
3900 -6.739328e+05  1.713385e+03  4.042602e+01  9.768397e+01  2.418330e+06 -6.721584e+05  7.215383e+00 -6.722195e+05
Averages over the last 20 of 39 rows, steps 4850 to 5800:
PotEng KinEng Press Temp Volume Enthalpy Density TotEng
-673410 2221.69 -2.64596 126.663 2.41994e+06 -671192 7.21057 -671188
Loop time of 41.2852 on 30 procs for 1900 steps with 135696 atoms

	write_restart data/restart.heat_msr
System init for write_restart ...
	unfix	heat
	fix	rest all npt temp 145 145 0.1 iso 0 0 0.1
	run     2000
Step PotEng KinEng Press Temp Volume Enthalpy Density TotEng
5800 -6.731570e+05  2.459652e+03 -4.474148e+01  1.402303e+02  2.420853e+06 -6.707649e+05  7.207862e+00 -6.706973e+05
Averages over the last 21 of 41 rows, steps 6800 to 7800:
PotEng KinEng Press Temp Volume Enthalpy Density TotEng
-673077 2543.37 1.21095 145.003 2.42103e+06 -670532 7.20735 -670533
Loop time of 43.7821 on 30 procs for 2000 steps with 135696 atoms

	unfix	rest
Loop 2; succeeded temp 145 target 1000
	variable Temp1 equal 145
	variable Temp2 equal 145+47.5
next		hloop
jump		SELF l3
	fix     heat all npt temp 145 192.5 0.1 iso 0 0 0.1
	run	1900
Step PotEng KinEng Press Temp Volume Enthalpy Density TotEng
7800 -6.730720e+05  2.542897e+03  6.542561e+01  1.449763e+02  2.420951e+06 -6.704303e+05  7.207573e+00 -6.705291e+05
Averages over the last 20 of 39 rows, steps 8750 to 9700:
PotEng KinEng Press Temp Volume Enthalpy Density TotEng
-672520 3080.26 3.32234 175.613 2.42271e+06 -669435 7.20235 -669440
Loop time of 41.5915 on 30 procs for 1900 steps with 135696 atoms

	write_restart data/restart.heat_msr
System init for write_restart ...
	unfix	heat
	fix	rest all npt temp 192.5 192.5 0.1 iso 0 0 0.1
	run     2000
Step PotEng KinEng Press Temp Volume Enthalpy Density TotEng
9700 -6.722736e+05  3.313593e+03  3.737349e+01  1.889154e+02  2.423368e+06 -6.689034e+05  7.200384e+00 -6.689600e+05
Averages over the last 21 of 41 rows, steps 10700 to 11700:
PotEng KinEng Press Temp Volume Enthalpy Density TotEng
-672211 3376.56 1.67713 192.505 2.42365e+06 -668832 7.19954 -668834
Loop time of 43.9501 on 30 procs for 2000 steps with 135696 atoms

	unfix	rest
Loop 3; succeeded temp 192.5 target 1000
	variable Temp1 equal 192.5
	variable Temp2 equal 192.5+47.5
next		hloop
jump		SELF l3
	fix     heat all npt temp 192.5 240 0.1 iso 0 0 0.1
	run	1900
Step PotEng KinEng Press Temp Volume Enthalpy Density TotEng
11700 -6.722141e+05  3.373016e+03 -1.854512e+01  1.923033e+02  2.423659e+06 -6.688691e+05  7.199520e+00 -6.688410e+05
Averages over the last 20 of 39 rows, steps 12650 to 13600:
PotEng KinEng Press Temp Volume Enthalpy Density TotEng
-671633 3929.43 1.49105 224.026 2.42554e+06 -667701 7.19394 -667704
Loop time of 41.751 on 30 procs for 1900 steps with 135696 atoms

	write_restart data/restart.heat_msr
System init for write_restart ...
	unfix	heat
	fix	rest all npt temp 240 240 0.1 iso 0 0 0.1
	run     2000
Step PotEng KinEng Press Temp Volume Enthalpy Density TotEng
13600 -6.713972e+05  4.161666e+03 -9.784528e+01  2.372660e+02  2.426602e+06 -6.673838e+05  7.190787e+00 -6.672356e+05
Averages over the last 21 of 41 rows, steps 14600 to 15600:
PotEng KinEng Press Temp Volume Enthalpy Density TotEng
-671348 4208.2 2.55589 239.919 2.42645e+06 -667136 7.19123 -667140
Loop time of 44.1074 on 30 procs for 2000 steps with 135696 atoms

	unfix	rest
Loop 4; succeeded temp 240 target 1000
	variable Temp1 equal 240
	variable Temp2 equal 240+47.5
next		hloop
jump		SELF l3
	fix     heat all npt temp 240 287.5 0.1 iso 0 0 0.1
	run	1900
Step PotEng KinEng Press Temp Volume Enthalpy Density TotEng
15600 -6.713483e+05  4.203209e+03 -9.641621e+01  2.396345e+02  2.426559e+06 -6.672911e+05  7.190914e+00 -6.671451e+05
Averages over the last 20 of 39 rows, steps 16550 to 17500:
PotEng KinEng Press Temp Volume Enthalpy Density TotEng
-670760 4771.08 -11.0346 272.01 2.4284e+06 -666005 7.18546 -665989
Loop time of 41.5735 on 30 procs for 1900 steps with 135696 atoms

	write_restart data/restart.heat_msr
System init for write_restart ...
	unfix	heat
	fix	rest all npt temp 287.5 287.5 0.1 iso 0 0 0.1
	run     2000
Step PotEng KinEng Press Temp Volume Enthalpy Density TotEng
17500 -6.705222e+05  4.999823e+03 -1.481887e+02  2.850513e+02  2.429426e+06 -6.657471e+05  7.182428e+00 -6.655224e+05
Averages over the last 21 of 41 rows, steps 18500 to 19500:
PotEng KinEng Press Temp Volume Enthalpy Density TotEng
-670474 5045.39 -9.70022 287.649 2.42945e+06 -665443 7.18236 -665428
Loop time of 43.5674 on 30 procs for 2000 steps with 135696 atoms

	unfix	rest
Loop 5; succeeded temp 287.5 target 1000
	variable Temp1 equal 287.5
	variable Temp2 equal 287.5+47.5
next		hloop
jump		SELF l3
	fix     heat all npt temp 287.5 335 0.1 iso 0 0 0.1
	run	1900
Step PotEng KinEng Press Temp Volume Enthalpy Density TotEng
19500 -6.704968e+05  5.047754e+03  1.828457e+02  2.877839e+02  2.428732e+06 -6.651719e+05  7.184481e+00 -6.654491e+05
Averages over the last 20 of 39 rows, steps 20450 to 21400:
PotEng KinEng Press Temp Volume Enthalpy Density TotEng
-669879 5611.05 -8.4956 319.899 2.4313e+06 -664281 7.17689 -664268
Loop time of 41.3591 on 30 procs for 1900 steps with 135696 atoms

	write_restart data/restart.heat_msr
System init for write_restart ...
	unfix	heat
	fix	rest all npt temp 335 335 0.1 iso 0 0 0.1
	run     2000
Step PotEng KinEng Press Temp Volume Enthalpy Density TotEng
21400 -6.696431e+05  5.831597e+03  1.402051e+02  3.324725e+02  2.431729e+06 -6.635987e+05  7.175627e+00 -6.638115e+05
Averages over the last 21 of 41 rows, steps 22400 to 23400:
PotEng KinEng Press Temp Volume Enthalpy Density TotEng
-669605 5872.16 -33.3286 334.785 2.43226e+06 -663783 7.17405 -663732
Loop time of 43.5969 on 30 procs for 2000 steps with 135696 atoms

	unfix	rest
Loop 6; succeeded temp 335 target 1000
	variable Temp1 equal 335
	variable Temp2 equal 335+47.5
next		hloop
jump		SELF l3
	fix     heat all npt temp 335 382.5 0.1 iso 0 0 0.1
	run	1900
Step PotEng KinEng Press Temp Volume Enthalpy Density TotEng
23400 -6.696158e+05  5.847893e+03 -2.711600e+02  3.334016e+02  2.432771e+06 -6.641796e+05  7.172553e+00 -6.637679e+05
Averages over the last 20 of 39 rows, steps 24350 to 25300:
PotEng KinEng Press Temp Volume Enthalpy Density TotEng
-668990 6448.51 -11.1221 367.644 2.43428e+06 -662558 7.1681 -662541
Loop time of 41.4601 on 30 procs for 1900 steps with 135696 atoms

	write_restart data/restart.heat_msr
System init for write_restart ...
	unfix	heat
	fix	rest all npt temp 382.5 382.5 0.1 iso 0 0 0.1
	run     2000
Step PotEng KinEng Press Temp Volume Enthalpy Density TotEng
25300 -6.687497e+05  6.661745e+03  5.010837e+01  3.798012e+02  2.434977e+06 -6.620118e+05  7.166054e+00 -6.620880e+05
Averages over the last 21 of 41 rows, steps 26300 to 27300:
PotEng KinEng Press Temp Volume Enthalpy Density TotEng
-668712 6712.49 1.53173 382.694 2.43521e+06 -661998 7.16536 -662000
Loop time of 43.7606 on 30 procs for 2000 steps with 135696 atoms

	unfix	rest
Loop 7; succeeded temp 382.5 target 1000
	variable Temp1 equal 382.5
	variable Temp2 equal 382.5+47.5
next		hloop
jump		SELF l3
	fix     heat all npt temp 382.5 430 0.1 iso 0 0 0.1
	run	1900
Step PotEng KinEng Press Temp Volume Enthalpy Density TotEng
27300 -6.687137e+05  6.733551e+03 -9.149155e+01  3.838950e+02  2.435390e+06 -6.621193e+05  7.164840e+00 -6.619802e+05
Averages over the last 20 of 39 rows, steps 28250 to 29200:
PotEng KinEng Press Temp Volume Enthalpy Density TotEng
-668104 7283.48 -3.41636 415.248 2.43729e+06 -660825 7.15926 -660820
Loop time of 41.5064 on 30 procs for 1900 steps with 135696 atoms

	write_restart data/restart.heat_msr
System init for write_restart ...
	unfix	heat
	fix	rest all npt temp 430 430 0.1 iso 0 0 0.1
	run     2000
Step PotEng KinEng Press Temp Volume Enthalpy Density TotEng
29200 -6.678760e+05  7.510479e+03 -3.117806e+02  4.281895e+02  2.438686e+06 -6.608401e+05  7.155155e+00 -6.603655e+05
Averages over the last 21 of 41 rows, steps 30200 to 31200:
PotEng KinEng Press Temp Volume Enthalpy Density TotEng
-667826 7543.32 -7.89959 430.062 2.43823e+06 -660295 7.15649 -660283
Loop time of 43.8068 on 30 procs for 2000 steps with 135696 atoms

	unfix	rest
Loop 8; succeeded temp 430 target 1000
	variable Temp1 equal 430
	variable Temp2 equal 430+47.5
next		hloop
jump		SELF l3
	fix     heat all npt temp 430 477.5 0.1 iso 0 0 0.1
	run	1900
Step PotEng KinEng Press Temp Volume Enthalpy Density TotEng
31200 -6.678206e+05  7.520755e+03 -3.312518e+01  4.287753e+02  2.438391e+06 -6.603503e+05  7.156022e+00 -6.602999e+05
Averages over the last 20 of 39 rows, steps 32150 to 33100:
PotEng KinEng Press Temp Volume Enthalpy Density TotEng
-667208 8118.12 0.0848211 462.832 2.44025e+06 -659089 7.15056 -659089
Loop time of 41.6463 on 30 procs for 1900 steps with 135696 atoms

	write_restart data/restart.heat_msr
System init for write_restart ...
	unfix	heat
	fix	rest all npt temp 477.5 477.5 0.1 iso 0 0 0.1
	run     2000
Step PotEng KinEng Press Temp Volume Enthalpy Density TotEng
33100 -6.669554e+05  8.318306e+03 -8.539642e+01  4.742455e+02  2.441154e+06 -6.587672e+05  7.147923e+00 -6.586371e+05
Averages over the last 21 of 41 rows, steps 34100 to 35100:
PotEng KinEng Press Temp Volume Enthalpy Density TotEng
-666930 8370.72 4.14599 477.233 2.44122e+06 -658553 7.14773 -658559
Loop time of 43.943 on 30 procs for 2000 steps with 135696 atoms

	unfix	rest
Loop 9; succeeded temp 477.5 target 1000
	variable Temp1 equal 477.5
	variable Temp2 equal 477.5+47.5
next		hloop
jump		SELF l3
	fix     heat all npt temp 477.5 525 0.1 iso 0 0 0.1
	run	1900
Step PotEng KinEng Press Temp Volume Enthalpy Density TotEng
35100 -6.669308e+05  8.395795e+03  1.019666e+02  4.786633e+02  2.440777e+06 -6.583796e+05  7.149027e+00 -6.585350e+05
Averages over the last 20 of 39 rows, steps 36050 to 37000:
PotEng KinEng Press Temp Volume Enthalpy Density TotEng
-666289 8951.21 -6.70605 510.329 2.44351e+06 -657348 7.14104 -657338
Loop time of 41.7751 on 30 procs for 1900 steps with 135696 atoms

	write_restart data/restart.heat_msr
System init for write_restart ...
	unfix	heat
	fix	rest all npt temp 525 525 0.1 iso 0 0 0.1
	run     2000
Step PotEng KinEng Press Temp Volume Enthalpy Density TotEng
37000 -6.660304e+05  9.145395e+03 -2.376161e+02  5.213997e+02  2.444698e+06 -6.572475e+05  7.137561e+00 -6.568850e+05
Averages over the last 21 of 41 rows, steps 38000 to 39000:
PotEng KinEng Press Temp Volume Enthalpy Density TotEng
-666008 9213.13 -4.55168 525.261 2.44438e+06 -656802 7.13848 -656795
Loop time of 43.9309 on 30 procs for 2000 steps with 135696 atoms

	unfix	rest
Loop 10; succeeded temp 525 target 1000
	variable Temp1 equal 525
	variable Temp2 equal 525+47.5
next		hloop
jump		SELF l3
	fix     heat all npt temp 525 572.5 0.1 iso 0 0 0.1
	run	1900
Step PotEng KinEng Press Temp Volume Enthalpy Density TotEng
39000 -6.660215e+05  9.205389e+03 -3.311003e+02  5.248201e+02  2.445177e+06 -6.573215e+05  7.136163e+00 -6.568161e+05
Averages over the last 20 of 39 rows, steps 39950 to 40900:
PotEng KinEng Press Temp Volume Enthalpy Density TotEng
-665370 9789.69 -3.66858 558.132 2.44669e+06 -655586 7.13176 -655581
Loop time of 41.7525 on 30 procs for 1900 steps with 135696 atoms

	write_restart data/restart.heat_msr
System init for write_restart ...
	unfix	heat
	fix	rest all npt temp 572.5 572.5 0.1 iso 0 0 0.1
	run     2000
Step PotEng KinEng Press Temp Volume Enthalpy Density TotEng
40900 -6.651544e+05  1.001618e+04 -1.555153e+02  5.710451e+02  2.447972e+06 -6.553758e+05  7.128015e+00 -6.551382e+05
Averages over the last 21 of 41 rows, steps 41900 to 42900:
PotEng KinEng Press Temp Volume Enthalpy Density TotEng
-665080 10045.9 -8.753 572.738 2.44766e+06 -655048 7.12893 -655034
Loop time of 43.9226 on 30 procs for 2000 steps with 135696 atoms

	unfix	rest
Loop 11; succeeded temp 572.5 target 1000
	variable Temp1 equal 572.5
	variable Temp2 equal 572.5+47.5
next		hloop
jump		SELF l3
	fix     heat all npt temp 572.5 620 0.1 iso 0 0 0.1
	run	1900
Step PotEng KinEng Press Temp Volume Enthalpy Density TotEng
42900 -6.651017e+05  1.005778e+04  6.158297e+01  5.734166e+02  2.447422e+06 -6.549499e+05  7.129615e+00 -6.550439e+05
Averages over the last 20 of 39 rows, steps 43850 to 44800:
PotEng KinEng Press Temp Volume Enthalpy Density TotEng
-664430 10622.6 13.8992 605.621 2.44988e+06 -653786 7.12245 -653807
Loop time of 41.7381 on 30 procs for 1900 steps with 135696 atoms

	write_restart data/restart.heat_msr
System init for write_restart ...
	unfix	heat
	fix	rest all npt temp 620 620 0.1 iso 0 0 0.1
	run     2000
Step PotEng KinEng Press Temp Volume Enthalpy Density TotEng
44800 -6.642156e+05  1.086020e+04  4.920862e+01  6.191646e+02  2.450375e+06 -6.532801e+05  7.121023e+00 -6.533554e+05
Averages over the last 21 of 41 rows, steps 45800 to 46800:
PotEng KinEng Press Temp Volume Enthalpy Density TotEng
-664143 10874 1.59216 619.949 2.45086e+06 -653266 7.11961 -653269
Loop time of 44.0676 on 30 procs for 2000 steps with 135696 atoms

	unfix	rest
Loop 12; succeeded temp 620 target 1000
	variable Temp1 equal 620
	variable Temp2 equal 620+47.5
next		hloop
jump		SELF l3
	fix     heat all npt temp 620 667.5 0.1 iso 0 0 0.1
	run	1900
Step PotEng KinEng Press Temp Volume Enthalpy Density TotEng
46800 -6.641339e+05  1.090283e+04  1.901546e+02  6.215951e+02  2.450609e+06 -6.529402e+05  7.120343e+00 -6.532311e+05
Averages over the last 20 of 39 rows, steps 47750 to 48700:
PotEng KinEng Press Temp Volume Enthalpy Density TotEng
-663485 11451 8.53713 652.85 2.45318e+06 -652021 7.11289 -652034
Loop time of 41.7734 on 30 procs for 1900 steps with 135696 atoms

	write_restart data/restart.heat_msr
System init for write_restart ...
	unfix	heat
	fix	rest all npt temp 667.5 667.5 0.1 iso 0 0 0.1
	run     2000
Step PotEng KinEng Press Temp Volume Enthalpy Density TotEng
48700 -6.632216e+05  1.164803e+04  9.249332e+01  6.640808e+02  2.453907e+06 -6.514319e+05  7.110773e+00 -6.515736e+05
Averages over the last 21 of 41 rows, steps 49700 to 50700:
PotEng KinEng Press Temp Volume Enthalpy Density TotEng
-663167 11707.5 -136.431 667.472 2.45451e+06 -651668 7.10903 -651459
Loop time of 44.0364 on 30 procs for 2000 steps with 135696 atoms

	unfix	rest
Loop 13; succeeded temp 667.5 target 1000
	variable Temp1 equal 667.5
	variable Temp2 equal 667.5+47.5
next		hloop
jump		SELF l3
	fix     heat all npt temp 667.5 715 0.1 iso 0 0 0.1
	run	1900
Step PotEng KinEng Press Temp Volume Enthalpy Density TotEng
50700 -6.631717e+05  1.167727e+04  1.544853e+01  6.657479e+02  2.454355e+06 -6.514707e+05  7.109475e+00 -6.514944e+05
Averages over the last 20 of 39 rows, steps 51650 to 52600:
PotEng KinEng Press Temp Volume Enthalpy Density TotEng
-662508 12285.6 -140.268 700.431 2.45688e+06 -650437 7.10216 -650222
Loop time of 41.824 on 30 procs for 1900 steps with 135696 atoms

	write_restart data/restart.heat_msr
System init for write_restart ...
	unfix	heat
	fix	rest all npt temp 715 715 0.1 iso 0 0 0.1
	run     2000
Step PotEng KinEng Press Temp Volume Enthalpy Density TotEng
52600 -6.622791e+05  1.250785e+04  3.994527e+01  7.131010e+02  2.457421e+06 -6.497100e+05  7.100606e+00 -6.497713e+05
Averages over the last 21 of 41 rows, steps 53600 to 54600:
PotEng KinEng Press Temp Volume Enthalpy Density TotEng
-662218 12541.4 77.5639 715.015 2.45743e+06 -649557 7.10059 -649676
Loop time of 43.9632 on 30 procs for 2000 steps with 135696 atoms

	unfix	rest
Loop 14; succeeded temp 715 target 1000
	variable Temp1 equal 715
	variable Temp2 equal 715+47.5
next		hloop
jump		SELF l3
	fix     heat all npt temp 715 762.5 0.1 iso 0 0 0.1
	run	1900
Step PotEng KinEng Press Temp Volume Enthalpy Density TotEng
54600 -6.622308e+05  1.255105e+04  3.493588e+02  7.155638e+02  2.456739e+06 -6.491440e+05  7.102577e+00 -6.496797e+05
Averages over the last 20 of 39 rows, steps 55550 to 56500:
PotEng KinEng Press Temp Volume Enthalpy Density TotEng
-661538 13118.4 61.3529 747.912 2.45984e+06 -648326 7.09364 -648420
Loop time of 41.8044 on 30 procs for 1900 steps with 135696 atoms

	write_restart data/restart.heat_msr
System init for write_restart ...
	unfix	heat
	fix	rest all npt temp 762.5 762.5 0.1 iso 0 0 0.1
	run     2000
Step PotEng KinEng Press Temp Volume Enthalpy Density TotEng
56500 -6.613034e+05  1.334819e+04  1.310087e+02  7.610108e+02  2.460573e+06 -6.477540e+05  7.091512e+00 -6.479552e+05
Averages over the last 21 of 41 rows, steps 57500 to 58500:
PotEng KinEng Press Temp Volume Enthalpy Density TotEng
-661215 13382 -20.4819 762.939 2.46115e+06 -647865 7.08985 -647833
Loop time of 44.01 on 30 procs for 2000 steps with 135696 atoms

	unfix	rest
Loop 15; succeeded temp 762.5 target 1000
	variable Temp1 equal 762.5
	variable Temp2 equal 762.5+47.5
next		hloop
jump		SELF l3
	fix     heat all npt temp 762.5 810 0.1 iso 0 0 0.1
	run	1900
Step PotEng KinEng Press Temp Volume Enthalpy Density TotEng
58500 -6.611598e+05  1.340459e+04  1.119101e+02  7.642263e+02  2.460917e+06 -6.475833e+05  7.090520e+00 -6.477552e+05
Averages over the last 20 of 39 rows, steps 59450 to 60400:
PotEng KinEng Press Temp Volume Enthalpy Density TotEng
-660522 13953.2 -20.1714 795.504 2.46363e+06 -646600 7.08271 -646569
Loop time of 41.7254 on 30 procs for 1900 steps with 135696 atoms

	write_restart data/restart.heat_msr
System init for write_restart ...
	unfix	heat
	fix	rest all npt temp 810 810 0.1 iso 0 0 0.1
	run     2000
Step PotEng KinEng Press Temp Volume Enthalpy Density TotEng
60400 -6.603059e+05  1.420801e+04 -1.588828e+02  8.100307e+02  2.464760e+06 -6.463423e+05  7.079464e+00 -6.460979e+05
Averages over the last 21 of 41 rows, steps 61400 to 62400:
PotEng KinEng Press Temp Volume Enthalpy Density TotEng
-660215 14214.4 -31.5939 810.397 2.46478e+06 -646049 7.07941 -646000
Loop time of 43.9455 on 30 procs for 2000 steps with 135696 atoms

	unfix	rest
Loop 16; succeeded temp 810 target 1000
	variable Temp1 equal 810
	variable Temp2 equal 810+47.5
next		hloop
jump		SELF l3
	fix     heat all npt temp 810 857.5 0.1 iso 0 0 0.1
	run	1900
Step PotEng KinEng Press Temp Volume Enthalpy Density TotEng
62400 -6.602200e+05  1.422984e+04 -4.051254e+02  8.112757e+02  2.465483e+06 -6.466135e+05  7.077387e+00 -6.459901e+05
Averages over the last 20 of 39 rows, steps 63350 to 64300:
PotEng KinEng Press Temp Volume Enthalpy Density TotEng
-659499 14784.2 20.7137 842.879 2.46716e+06 -644683 7.07257 -644715
Loop time of 41.6999 on 30 procs for 1900 steps with 135696 atoms

	write_restart data/restart.heat_msr
System init for write_restart ...
	unfix	heat
	fix	rest all npt temp 857.5 857.5 0.1 iso 0 0 0.1
	run     2000
Step PotEng KinEng Press Temp Volume Enthalpy Density TotEng
64300 -6.592475e+05  1.499143e+04 -4.010634e+01  8.546952e+02  2.468525e+06 -6.443178e+05  7.068667e+00 -6.442561e+05
Averages over the last 21 of 41 rows, steps 65300 to 66300:
PotEng KinEng Press Temp Volume Enthalpy Density TotEng
-659165 15043 -15.7285 857.637 2.46854e+06 -644147 7.06863 -644122
Loop time of 43.968 on 30 procs for 2000 steps with 135696 atoms

	unfix	rest
Loop 17; succeeded temp 857.5 target 1000
	variable Temp1 equal 857.5
	variable Temp2 equal 857.5+47.5
next		hloop
jump		SELF l3
	fix     heat all npt temp 857.5 905 0.1 iso 0 0 0.1
	run	1900
Step PotEng KinEng Press Temp Volume Enthalpy Density TotEng
66300 -6.591884e+05  1.503506e+04  2.632611e+01  8.571827e+02  2.468330e+06 -6.441128e+05  7.069225e+00 -6.441534e+05
Averages over the last 20 of 39 rows, steps 67250 to 68200:
PotEng KinEng Press Temp Volume Enthalpy Density TotEng
-658457 15617.9 -4.46319 890.411 2.47093e+06 -642846 7.06178 -642840
Loop time of 41.8046 on 30 procs for 1900 steps with 135696 atoms

	write_restart data/restart.heat_msr
System init for write_restart ...
	unfix	heat
	fix	rest all npt temp 905 905 0.1 iso 0 0 0.1
	run     2000
Step PotEng KinEng Press Temp Volume Enthalpy Density TotEng
68200 -6.582301e+05  1.586996e+04  3.014403e+02  9.047822e+02  2.471120e+06 -6.418952e+05  7.061242e+00 -6.423602e+05
Averages over the last 21 of 41 rows, steps 69200 to 70200:
PotEng KinEng Press Temp Volume Enthalpy Density TotEng
-658066 15880.1 -5.83358 905.36 2.47233e+06 -642195 7.0578 -642186
Loop time of 44.01 on 30 procs for 2000 steps with 135696 atoms

	unfix	rest
Loop 18; succeeded temp 905 target 1000
	variable Temp1 equal 905
	variable Temp2 equal 905+47.5
next		hloop
jump		SELF l3
	fix     heat all npt temp 905 952.5 0.1 iso 0 0 0.1
	run	1900
Step PotEng KinEng Press Temp Volume Enthalpy Density TotEng
70200 -6.580258e+05  1.589996e+04 -2.533327e+02  9.064927e+02  2.472933e+06 -6.425168e+05  7.056067e+00 -6.421258e+05
Averages over the last 20 of 39 rows, steps 71150 to 72100:
PotEng KinEng Press Temp Volume Enthalpy Density TotEng
-657336 16445.5 9.28858 937.593 2.47485e+06 -640877 7.05061 -640891
Loop time of 41.8416 on 30 procs for 1900 steps with 135696 atoms

	write_restart data/restart.heat_msr
System init for write_restart ...
	unfix	heat
	fix	rest all npt temp 952.5 952.5 0.1 iso 0 0 0.1
	run     2000
Step PotEng KinEng Press Temp Volume Enthalpy Density TotEng
72100 -6.569923e+05  1.660752e+04 -1.960594e+02  9.468321e+02  2.476476e+06 -6.406879e+05  7.045971e+00 -6.403848e+05
Averages over the last 21 of 41 rows, steps 73100 to 74100:
PotEng KinEng Press Temp Volume Enthalpy Density TotEng
-656954 16691.6 -5.27998 951.625 2.47632e+06 -640271 7.04642 -640263
Loop time of 44.1258 on 30 procs for 2000 steps with 135696 atoms

	unfix	rest
Loop 19; succeeded temp 952.5 target 1000
	variable Temp1 equal 952.5
	variable Temp2 equal 952.5+47.5
next		hloop
jump		SELF l3
	fix     heat all npt temp 952.5 1000 0.1 iso 0 0 0.1
	run	1900
Step PotEng KinEng Press Temp Volume Enthalpy Density TotEng
74100 -6.568388e+05  1.665770e+04 -1.800004e+02  9.496935e+02  2.476715e+06 -6.404593e+05  7.045292e+00 -6.401811e+05
Averages over the last 20 of 39 rows, steps 75050 to 76000:
PotEng KinEng Press Temp Volume Enthalpy Density TotEng
-656141 17278.9 19.763 985.111 2.47901e+06 -638832 7.03876 -638863
Loop time of 42.0161 on 30 procs for 1900 steps with 135696 atoms

	write_restart data/restart.heat_msr
System init for write_restart ...
	unfix	heat
	fix	rest all npt temp 1000 1000 0.1 iso 0 0 0.1
	run     2000
Step PotEng KinEng Press Temp Volume Enthalpy Density TotEng
76000 -6.558263e+05  1.747492e+04  1.599752e+02  9.962845e+02  2.479538e+06 -6.381038e+05  7.037271e+00 -6.383514e+05
Averages over the last 21 of 41 rows, steps 77000 to 78000:
PotEng KinEng Press Temp Volume Enthalpy Density TotEng
-655707 17539.5 3.14201 999.966 2.48058e+06 -638163 7.03432 -638168
Loop time of 44.1113 on 30 procs for 2000 steps with 135696 atoms

	unfix	rest
Loop 20; succeeded temp 1000 target 1000
	variable Temp1 equal 1000
	variable Temp2 equal 1000+47.5
next		hloop
jump		SELF l3

#variable	st equal $(step)
#write_restart 	data/restart.heat_msr

#--------------------------------------------------------------------------------OUTPUT
variable        clusfile string "data/data.msr_dsc"               #output to save progress and to allow import to future simulations
variable        reclusfile string "data/restart.msr_dsc"
write_data      data/data.msr_dsc
System init for write_data ...
write_restart   data/restart.msr_dsc
System init for write_restart ...
