LAMMPS (29 Oct 2020)
##################################################################
##IN.CLUSTER_ANNEAL_DATA					##
##Anneal and segregate already prepared amorphous cluster	##
##Dependencies	: none						##
##Influences: /data						##
##################################################################
## ver. : 2020-07-17, Syamal Praneeth Chilakalapudi, KIT, INT	##
##Author Email    :syamalpraneeth@gmail.com			##
##################################################################

#--------------------------------------------------------------VARIABLES FROM COMMAND LINE
variable        pot string Cu-Zr_4.eam.fs
next            args
variable        e1 string Cu
next            args
variable        e2 string Zr
next            args
variable        x equal 50
next            args
variable        y equal 50
variable        frac equal $y/($x+$y)
variable        frac equal 50/($x+$y)
variable        frac equal 50/(50+$y)
variable        frac equal 50/(50+50)
next            args
variable        T1 equal 200000
next            args
variable	heat_ramp equal 0.25

variable        th equal 200000/40
variable        df equal 200000/20

variable	lat equal 3.6				#lattice parameter to define spacings

variable	T_hot equal 2000
variable	T_cool equal 50
variable	T_heat equal 1000
variable	ht equal (1000-50)*((10^3)/(0.25))

variable        t1 equal 200000/10
variable        t equal 3800000/25
variable        ht_inter equal (3800000/10)

#--------------------------------------------------------------------------------INTIALISE
units           metal					#fundamental LAMMPS and MD conditions initialization
dimension       3
atom_style      atomic
boundary        p p p
lattice		bcc 3.6
Lattice spacing in x,y,z = 3.6000000 3.6000000 3.6000000

read_restart	../restart.msr_20
Reading restart file ...
  restart file = 29 Oct 2020, LAMMPS = 29 Oct 2020
  restoring atom style atomic from restart
  orthogonal box = (-32.899909 -32.894461 -32.901225) to (101.28037 101.28365 101.28218)
  pair style eam/fs stores no restart info
  135696 atoms
  read_restart CPU = 0.040 seconds

neigh_modify	every 1 delay 0 check yes

newton		on
pair_style	eam/fs					#EAM potentials best for metallic systems
pair_coeff      * * Cu-Zr_4.eam.fs Cu Zr Cu Zr
reset_timestep  0

info groups fixes variables regions

#-----------------------------------------------------------------FIXES FOR SUBSTRATE
fix             corint all property/atom i_int

#--------------------------------------------------------------------------------COMPUTES
compute         c1 all temp
compute_modify  c1 dynamic/dof yes extra/dof 0		#It seemed like a dynamic evaluation was better
compute		c2 all pe/atom

#--------------------------------------------------------------------------------THERMO
thermo_style    custom step pe ke press temp vol enthalpy density etotal #c_c5 c_c6 #c_c4
thermo_modify   format float "% .6e"
thermo_modify   temp c1
thermo          5000
timestep        0.0010					#standard timestep 1fs for metallic systems

write_dump all custom dump_msr.atom id type x y z vx vy vz i_int
dump            d1 all custom 10000 data/lammpstrj.dep.msr id type x y z vx vy vz i_int

#--------------------------------------------------------------------------------BALANCE AND EQUILIBRATE
comm_style	tiled					#to allow for rcb style (weighted balancing) of balancing of atoms across processors
balance		1.0 rcb out data/tmp.balance1_msr	#rebalance atoms on processors after deleting atoms outside sphere
Balancing ...
  update every 1 steps, delay 0 steps, check yes
 rebalancing time: 0.032 seconds
  iteration count = 0
  initial/final maximal load/proc = 1813.0000 1787.0000
  initial/final imbalance factor  = 1.0154168 1.0008549

#write_restart   data/restart.equilib_1_msr
#unfix		hold

#-------------------------------------------------------------------------------HEATING
variable	loopsiz equal 20
variable	dT equal (1000-50)/20
variable	Temp1 equal 50
variable	Temp2 equal 50+47.5
variable        tstop equal 0+3800000

#label		l3
#	write_restart data/restart.heat_msr
#	unfix	heat
#	unfix	rest
#next		hloop
#jump		SELF l3

variable	st equal $(step)
variable	st equal 0
variable	et equal 0+3800000
fix     	heat all npt temp 50 1000 0.1 iso 0 0 0.1
run		3800000
Step PotEng KinEng Press Temp Volume Enthalpy Density TotEng
0 -6.747940e+05  8.765437e+02  1.711649e+01  4.997374e+01  2.415846e+06 -6.738916e+05  7.222804e+00 -6.739174e+05
Averages over the last 381 of 761 rows, steps 1900000 to 3800000:
PotEng KinEng Press Temp Volume Enthalpy Density TotEng
-660808 13371.6 -1.60063 762.344 2.4626e+06 -647439 7.08584 -647437
Loop time of 44580 on 76 procs for 3800000 steps with 135696 atoms

write_restart 	data/restart.heat_msr
System init for write_restart ...

#--------------------------------------------------------------------------------OUTPUT
variable        clusfile string "data/data.msr_dsc"               #output to save progress and to allow import to future simulations
variable        reclusfile string "data/restart.msr_dsc"
write_data      data/data.msr_dsc
System init for write_data ...
write_restart   data/restart.msr_dsc
System init for write_restart ...
