LAMMPS (29 Oct 2020)
##################################################################
##IN.CLUSTER_ANNEAL_DATA					##
##Anneal and segregate already prepared amorphous cluster	##
##Dependencies	: none						##
##Influences: /data						##
##################################################################
## ver. : 2020-07-17, Syamal Praneeth Chilakalapudi, KIT, INT	##
##Author Email    :syamalpraneeth@gmail.com			##
##################################################################

#--------------------------------------------------------------VARIABLES FROM COMMAND LINE
variable        pot string Cu-Zr_4.eam.fs
next            args
variable        e1 string Cu
next            args
variable        e2 string Zr
next            args
variable        x equal 50
next            args
variable        y equal 50
variable        frac equal $y/($x+$y)
variable        frac equal 50/($x+$y)
variable        frac equal 50/(50+$y)
variable        frac equal 50/(50+50)
next            args
variable        T1 equal 200000
next            args
variable	heat_ramp equal 0.25

variable        th equal 200000/40
variable        df equal 200000/20

variable	lat equal 3.6				#lattice parameter to define spacings

variable	T_hot equal 2000
variable	T_cool equal 50
variable	T_heat equal 1000
variable	ht equal (1000-50)*((10^3)/(0.25))

variable        t1 equal 200000/10
variable        t equal 3800000/25
variable        ht_inter equal (3800000/10)

#--------------------------------------------------------------------------------INTIALISE
units           metal					#fundamental LAMMPS and MD conditions initialization
dimension       3
atom_style      atomic
boundary        p p p
lattice		bcc 3.6
Lattice spacing in x,y,z = 3.6000000 3.6000000 3.6000000

read_restart	../restart.msr_20
Reading restart file ...
  restart file = 29 Oct 2020, LAMMPS = 29 Oct 2020
  restoring atom style atomic from restart
  orthogonal box = (-32.899909 -32.894461 -32.901225) to (101.28037 101.28365 101.28218)
  pair style eam/fs stores no restart info
  135696 atoms
  read_restart CPU = 0.074 seconds

neigh_modify	every 1 delay 0 check yes

newton		on
pair_style	eam/fs					#EAM potentials best for metallic systems
pair_coeff      * * Cu-Zr_4.eam.fs Cu Zr Cu Zr
reset_timestep  0

info groups fixes variables regions

#-----------------------------------------------------------------FIXES FOR SUBSTRATE
fix             corint all property/atom i_int

#--------------------------------------------------------------------------------COMPUTES
compute         c1 all temp
compute_modify  c1 dynamic/dof yes extra/dof 0		#It seemed like a dynamic evaluation was better
compute		c2 all pe/atom

#--------------------------------------------------------------------------------THERMO
thermo_style    custom step pe ke press temp vol enthalpy density etotal #c_c5 c_c6 #c_c4
thermo_modify   format float "% .6e"
thermo_modify   temp c1
thermo          5000
timestep        0.0010					#standard timestep 1fs for metallic systems

write_dump all custom dump_msr.atom id type x y z vx vy vz i_int
dump            d1 all custom 10000 data/lammpstrj.dep.msr id type x y z vx vy vz i_int

#--------------------------------------------------------------------------------BALANCE AND EQUILIBRATE
comm_style	tiled					#to allow for rcb style (weighted balancing) of balancing of atoms across processors
balance		1.0 rcb out data/tmp.balance1_msr	#rebalance atoms on processors after deleting atoms outside sphere
Balancing ...
  update every 1 steps, delay 0 steps, check yes
 rebalancing time: 0.027 seconds
  iteration count = 0
  initial/final maximal load/proc = 1813.0000 1787.0000
  initial/final imbalance factor  = 1.0154168 1.0008549

#write_restart   data/restart.equilib_1_msr
#unfix		hold

#-------------------------------------------------------------------------------HEATING
variable	loopsiz equal 20
variable	dT equal (1000-50)/20
variable	Temp1 equal 50
variable	Temp2 equal 50+47.5
variable        tstop equal 0+3800000

variable	hloop loop 20
label		l3
	fix     heat all npt temp 50 97.5 0.1 iso 0 0 0.1
	run	380000
Step PotEng KinEng Press Temp Volume Enthalpy Density TotEng
0 -6.747940e+05  8.765437e+02  1.711649e+01  4.997374e+01  2.415846e+06 -6.738916e+05  7.222804e+00 -6.739174e+05
Averages over the last 39 of 77 rows, steps 190000 to 380000:
PotEng KinEng Press Temp Volume Enthalpy Density TotEng
-674176 1501.96 12.9608 85.6303 2.41769e+06 -672655 7.2173 -672674
Loop time of 4385.08 on 76 procs for 380000 steps with 135696 atoms

	write_restart data/restart.heat_msr
System init for write_restart ...
	unfix	heat
	fix	rest all npt temp 97.5 97.5 0.1 iso 0 0 0.1
	run     200000
Step PotEng KinEng Press Temp Volume Enthalpy Density TotEng
380000 -6.739772e+05  1.716500e+03 -1.948393e+01  9.786158e+01  2.418445e+06 -6.722901e+05  7.215041e+00 -6.722607e+05
Averages over the last 21 of 41 rows, steps 480000 to 580000:
PotEng KinEng Press Temp Volume Enthalpy Density TotEng
-673987 1709.52 5.79066 97.4635 2.41835e+06 -672269 7.21531 -672278
Loop time of 2222.91 on 76 procs for 200000 steps with 135696 atoms

	unfix	rest
Loop 1; succeeded temp 97.5 target 1000
	variable Temp1 equal 97.5
	variable Temp2 equal 97.5+47.5
next		hloop
jump		SELF l3
	fix     heat all npt temp 97.5 145 0.1 iso 0 0 0.1
	run	380000
Step PotEng KinEng Press Temp Volume Enthalpy Density TotEng
580000 -6.739861e+05  1.707690e+03 -6.394760e+01  9.735928e+01  2.418499e+06 -6.723750e+05  7.214879e+00 -6.722784e+05
Averages over the last 39 of 77 rows, steps 770000 to 960000:
PotEng KinEng Press Temp Volume Enthalpy Density TotEng
-673371 2335.19 -26.3308 133.134 2.42037e+06 -671075 7.2093 -671036
Loop time of 4265.14 on 76 procs for 380000 steps with 135696 atoms

	write_restart data/restart.heat_msr
System init for write_restart ...
	unfix	heat
	fix	rest all npt temp 145 145 0.1 iso 0 0 0.1
	run     200000
Step PotEng KinEng Press Temp Volume Enthalpy Density TotEng
960000 -6.731657e+05  2.535767e+03 -7.688245e+01  1.445699e+02  2.421162e+06 -6.707462e+05  7.206945e+00 -6.706300e+05
Averages over the last 21 of 41 rows, steps 1060000 to 1160000:
PotEng KinEng Press Temp Volume Enthalpy Density TotEng
-673187 2542.72 -15.3589 144.966 2.42096e+06 -670667 7.20756 -670644
Loop time of 2264.31 on 76 procs for 200000 steps with 135696 atoms

	unfix	rest
Loop 2; succeeded temp 145 target 1000
	variable Temp1 equal 145
	variable Temp2 equal 145+47.5
next		hloop
jump		SELF l3
	fix     heat all npt temp 145 192.5 0.1 iso 0 0 0.1
	run	380000
Step PotEng KinEng Press Temp Volume Enthalpy Density TotEng
1160000 -6.731969e+05  2.542665e+03 -1.559142e+02  1.449631e+02  2.421186e+06 -6.708899e+05  7.206872e+00 -6.706542e+05
Averages over the last 39 of 77 rows, steps 1350000 to 1540000:
PotEng KinEng Press Temp Volume Enthalpy Density TotEng
-672564 3167.14 10.4572 180.566 2.42298e+06 -669381 7.20154 -669397
Loop time of 4292.48 on 76 procs for 380000 steps with 135696 atoms

	write_restart data/restart.heat_msr
System init for write_restart ...
	unfix	heat
	fix	rest all npt temp 192.5 192.5 0.1 iso 0 0 0.1
	run     200000
Step PotEng KinEng Press Temp Volume Enthalpy Density TotEng
1540000 -6.723620e+05  3.375012e+03 -1.333530e+02  1.924171e+02  2.423888e+06 -6.691887e+05  7.198837e+00 -6.689870e+05
Averages over the last 21 of 41 rows, steps 1640000 to 1740000:
PotEng KinEng Press Temp Volume Enthalpy Density TotEng
-672358 3378.03 2.4358 192.589 2.42371e+06 -668977 7.19937 -668980
Loop time of 2268.21 on 76 procs for 200000 steps with 135696 atoms

	unfix	rest
Loop 3; succeeded temp 192.5 target 1000
	variable Temp1 equal 192.5
	variable Temp2 equal 192.5+47.5
next		hloop
jump		SELF l3
	fix     heat all npt temp 192.5 240 0.1 iso 0 0 0.1
	run	380000
Step PotEng KinEng Press Temp Volume Enthalpy Density TotEng
1740000 -6.723473e+05  3.368295e+03 -2.370015e+02  1.920341e+02  2.424508e+06 -6.693377e+05  7.196997e+00 -6.689790e+05
Averages over the last 39 of 77 rows, steps 1930000 to 2120000:
PotEng KinEng Press Temp Volume Enthalpy Density TotEng
-671733 3998.38 8.51547 227.956 2.42574e+06 -667722 7.19334 -667735
Loop time of 4336.26 on 76 procs for 380000 steps with 135696 atoms

	write_restart data/restart.heat_msr
System init for write_restart ...
	unfix	heat
	fix	rest all npt temp 240 240 0.1 iso 0 0 0.1
	run     200000
Step PotEng KinEng Press Temp Volume Enthalpy Density TotEng
2120000 -6.715192e+05  4.198618e+03  7.404732e+01  2.393727e+02  2.426454e+06 -6.672085e+05  7.191225e+00 -6.673206e+05
Averages over the last 21 of 41 rows, steps 2220000 to 2320000:
PotEng KinEng Press Temp Volume Enthalpy Density TotEng
-671532 4209.64 3.15567 240.001 2.42641e+06 -667317 7.19135 -667322
Loop time of 2328.36 on 76 procs for 200000 steps with 135696 atoms

	unfix	rest
Loop 4; succeeded temp 240 target 1000
	variable Temp1 equal 240
	variable Temp2 equal 240+47.5
next		hloop
jump		SELF l3
	fix     heat all npt temp 240 287.5 0.1 iso 0 0 0.1
	run	380000
Step PotEng KinEng Press Temp Volume Enthalpy Density TotEng
2320000 -6.715292e+05  4.208214e+03  2.027341e+02  2.399198e+02  2.426129e+06 -6.670140e+05  7.192190e+00 -6.673210e+05
Averages over the last 39 of 77 rows, steps 2510000 to 2700000:
PotEng KinEng Press Temp Volume Enthalpy Density TotEng
-670896 4834.93 27.937 275.65 2.42846e+06 -666019 7.18528 -666061
Loop time of 4380.29 on 76 procs for 380000 steps with 135696 atoms

	write_restart data/restart.heat_msr
System init for write_restart ...
	unfix	heat
	fix	rest all npt temp 287.5 287.5 0.1 iso 0 0 0.1
	run     200000
Step PotEng KinEng Press Temp Volume Enthalpy Density TotEng
2700000 -6.706855e+05  5.058854e+03 -1.093112e+02  2.884167e+02  2.429717e+06 -6.657924e+05  7.181568e+00 -6.656266e+05
Averages over the last 21 of 41 rows, steps 2800000 to 2900000:
PotEng KinEng Press Temp Volume Enthalpy Density TotEng
-670690 5045.22 27.5128 287.64 2.42916e+06 -665604 7.18321 -665645
Loop time of 2273.69 on 76 procs for 200000 steps with 135696 atoms

	unfix	rest
Loop 5; succeeded temp 287.5 target 1000
	variable Temp1 equal 287.5
	variable Temp2 equal 287.5+47.5
next		hloop
jump		SELF l3
	fix     heat all npt temp 287.5 335 0.1 iso 0 0 0.1
	run	380000
Step PotEng KinEng Press Temp Volume Enthalpy Density TotEng
2900000 -6.706869e+05  5.045802e+03  1.188350e+02  2.876726e+02  2.428990e+06 -6.654610e+05  7.183717e+00 -6.656411e+05
Averages over the last 39 of 77 rows, steps 3090000 to 3280000:
PotEng KinEng Press Temp Volume Enthalpy Density TotEng
-670032 5667.67 -41.3616 323.127 2.43152e+06 -664427 7.17624 -664365
Loop time of 4299.53 on 76 procs for 380000 steps with 135696 atoms

	write_restart data/restart.heat_msr
System init for write_restart ...
	unfix	heat
	fix	rest all npt temp 335 335 0.1 iso 0 0 0.1
	run     200000
Step PotEng KinEng Press Temp Volume Enthalpy Density TotEng
3280000 -6.698330e+05  5.883254e+03 -1.133221e+02  3.354176e+02  2.432383e+06 -6.641218e+05  7.173696e+00 -6.639497e+05
Averages over the last 21 of 41 rows, steps 3380000 to 3480000:
PotEng KinEng Press Temp Volume Enthalpy Density TotEng
-669833 5880.55 -16.689 335.263 2.43221e+06 -663978 7.1742 -663953
Loop time of 2274.07 on 76 procs for 200000 steps with 135696 atoms

	unfix	rest
Loop 6; succeeded temp 335 target 1000
	variable Temp1 equal 335
	variable Temp2 equal 335+47.5
next		hloop
jump		SELF l3
	fix     heat all npt temp 335 382.5 0.1 iso 0 0 0.1
	run	380000
Step PotEng KinEng Press Temp Volume Enthalpy Density TotEng
3480000 -6.698320e+05  5.887222e+03  1.334654e+02  3.356439e+02  2.431804e+06 -6.637423e+05  7.175406e+00 -6.639448e+05
Averages over the last 39 of 77 rows, steps 3670000 to 3860000:
PotEng KinEng Press Temp Volume Enthalpy Density TotEng
-669172 6500.37 -10.8505 370.601 2.43431e+06 -662688 7.16801 -662672
Loop time of 4347.04 on 76 procs for 380000 steps with 135696 atoms

	write_restart data/restart.heat_msr
System init for write_restart ...
	unfix	heat
	fix	rest all npt temp 382.5 382.5 0.1 iso 0 0 0.1
	run     200000
Step PotEng KinEng Press Temp Volume Enthalpy Density TotEng
3860000 -6.689651e+05  6.705559e+03 -2.619126e+02  3.822992e+02  2.435611e+06 -6.626577e+05  7.164188e+00 -6.622596e+05
Averages over the last 21 of 41 rows, steps 3960000 to 4060000:
PotEng KinEng Press Temp Volume Enthalpy Density TotEng
-668960 6709.22 -20.4822 382.508 2.43508e+06 -662281 7.16576 -662250
Loop time of 2300.17 on 76 procs for 200000 steps with 135696 atoms

	unfix	rest
Loop 7; succeeded temp 382.5 target 1000
	variable Temp1 equal 382.5
	variable Temp2 equal 382.5+47.5
next		hloop
jump		SELF l3
	fix     heat all npt temp 382.5 430 0.1 iso 0 0 0.1
	run	380000
Step PotEng KinEng Press Temp Volume Enthalpy Density TotEng
4060000 -6.689442e+05  6.722178e+03 -2.458515e+02  3.832466e+02  2.435621e+06 -6.625957e+05  7.164159e+00 -6.622220e+05
Averages over the last 39 of 77 rows, steps 4250000 to 4440000:
PotEng KinEng Press Temp Volume Enthalpy Density TotEng
-668291 7336.97 51.088 418.298 2.43723e+06 -660877 7.15942 -660954
Loop time of 4350.34 on 76 procs for 380000 steps with 135696 atoms

	write_restart data/restart.heat_msr
System init for write_restart ...
	unfix	heat
	fix	rest all npt temp 430 430 0.1 iso 0 0 0.1
	run     200000
Step PotEng KinEng Press Temp Volume Enthalpy Density TotEng
4440000 -6.680514e+05  7.544922e+03 -1.188534e+02  4.301531e+02  2.438406e+06 -6.606874e+05  7.155978e+00 -6.605065e+05
Averages over the last 21 of 41 rows, steps 4540000 to 4640000:
PotEng KinEng Press Temp Volume Enthalpy Density TotEng
-668080 7540.03 -4.46392 429.874 2.43815e+06 -660547 7.15672 -660540
Loop time of 2283.81 on 76 procs for 200000 steps with 135696 atoms

	unfix	rest
Loop 8; succeeded temp 430 target 1000
	variable Temp1 equal 430
	variable Temp2 equal 430+47.5
next		hloop
jump		SELF l3
	fix     heat all npt temp 430 477.5 0.1 iso 0 0 0.1
	run	380000
Step PotEng KinEng Press Temp Volume Enthalpy Density TotEng
4640000 -6.680738e+05  7.521842e+03 -2.200207e+02  4.288372e+02  2.439043e+06 -6.608869e+05  7.154108e+00 -6.605520e+05
Averages over the last 39 of 77 rows, steps 4830000 to 5020000:
PotEng KinEng Press Temp Volume Enthalpy Density TotEng
-667415 8167.34 -4.40644 465.639 2.44037e+06 -659254 7.15021 -659247
Loop time of 4367.57 on 76 procs for 380000 steps with 135696 atoms

	write_restart data/restart.heat_msr
System init for write_restart ...
	unfix	heat
	fix	rest all npt temp 477.5 477.5 0.1 iso 0 0 0.1
	run     200000
Step PotEng KinEng Press Temp Volume Enthalpy Density TotEng
5020000 -6.671818e+05  8.371703e+03  1.731443e+02  4.772898e+02  2.440749e+06 -6.585464e+05  7.149109e+00 -6.588101e+05
Averages over the last 21 of 41 rows, steps 5120000 to 5220000:
PotEng KinEng Press Temp Volume Enthalpy Density TotEng
-667203 8372.49 -1.94427 477.335 2.44112e+06 -658834 7.14801 -658831
Loop time of 2292.31 on 76 procs for 200000 steps with 135696 atoms

	unfix	rest
Loop 9; succeeded temp 477.5 target 1000
	variable Temp1 equal 477.5
	variable Temp2 equal 477.5+47.5
next		hloop
jump		SELF l3
	fix     heat all npt temp 477.5 525 0.1 iso 0 0 0.1
	run	380000
Step PotEng KinEng Press Temp Volume Enthalpy Density TotEng
5220000 -6.672229e+05  8.340553e+03  1.210742e+02  4.755138e+02  2.440919e+06 -6.586979e+05  7.148609e+00 -6.588824e+05
Averages over the last 39 of 77 rows, steps 5410000 to 5600000:
PotEng KinEng Press Temp Volume Enthalpy Density TotEng
-666529 8997.93 29.7676 512.992 2.44335e+06 -657486 7.14151 -657531
Loop time of 4352.99 on 76 procs for 380000 steps with 135696 atoms

	write_restart data/restart.heat_msr
System init for write_restart ...
	unfix	heat
	fix	rest all npt temp 525 525 0.1 iso 0 0 0.1
	run     200000
Step PotEng KinEng Press Temp Volume Enthalpy Density TotEng
5600000 -6.662764e+05  9.204654e+03 -7.671190e+01  5.247782e+02  2.444579e+06 -6.571888e+05  7.137908e+00 -6.570717e+05
Averages over the last 21 of 41 rows, steps 5700000 to 5800000:
PotEng KinEng Press Temp Volume Enthalpy Density TotEng
-666309 9211.71 -36.4493 525.18 2.44429e+06 -657153 7.13874 -657098
Loop time of 2299.45 on 76 procs for 200000 steps with 135696 atoms

	unfix	rest
Loop 10; succeeded temp 525 target 1000
	variable Temp1 equal 525
	variable Temp2 equal 525+47.5
next		hloop
jump		SELF l3
	fix     heat all npt temp 525 572.5 0.1 iso 0 0 0.1
	run	380000
Step PotEng KinEng Press Temp Volume Enthalpy Density TotEng
5800000 -6.663114e+05  9.176403e+03 -2.303695e+02  5.231676e+02  2.444776e+06 -6.574866e+05  7.137333e+00 -6.571350e+05
Averages over the last 39 of 77 rows, steps 5990000 to 6180000:
PotEng KinEng Press Temp Volume Enthalpy Density TotEng
-665619 9832.75 -12.8072 560.587 2.4466e+06 -655806 7.13203 -655786
Loop time of 4435.84 on 76 procs for 380000 steps with 135696 atoms

	write_restart data/restart.heat_msr
System init for write_restart ...
	unfix	heat
	fix	rest all npt temp 572.5 572.5 0.1 iso 0 0 0.1
	run     200000
Step PotEng KinEng Press Temp Volume Enthalpy Density TotEng
6180000 -6.654081e+05  1.006744e+04 -2.761915e+02  5.739676e+02  2.447830e+06 -6.557626e+05  7.128426e+00 -6.553407e+05
Averages over the last 21 of 41 rows, steps 6280000 to 6380000:
PotEng KinEng Press Temp Volume Enthalpy Density TotEng
-665405 10039.2 -28.6786 572.36 2.44742e+06 -655410 7.12963 -655366
Loop time of 2318.14 on 76 procs for 200000 steps with 135696 atoms

	unfix	rest
Loop 11; succeeded temp 572.5 target 1000
	variable Temp1 equal 572.5
	variable Temp2 equal 572.5+47.5
next		hloop
jump		SELF l3
	fix     heat all npt temp 572.5 620 0.1 iso 0 0 0.1
	run	380000
Step PotEng KinEng Press Temp Volume Enthalpy Density TotEng
6380000 -6.654014e+05  1.003124e+04  2.778445e+01  5.719037e+02  2.447573e+06 -6.553278e+05  7.129175e+00 -6.553702e+05
Averages over the last 39 of 77 rows, steps 6570000 to 6760000:
PotEng KinEng Press Temp Volume Enthalpy Density TotEng
-664714 10662.2 23.4851 607.878 2.44972e+06 -654016 7.12293 -654052
Loop time of 4403.26 on 76 procs for 380000 steps with 135696 atoms

	write_restart data/restart.heat_msr
System init for write_restart ...
	unfix	heat
	fix	rest all npt temp 620 620 0.1 iso 0 0 0.1
	run     200000
Step PotEng KinEng Press Temp Volume Enthalpy Density TotEng
6760000 -6.645264e+05  1.091446e+04  1.910776e+02  6.222579e+02  2.450139e+06 -6.533197e+05  7.121709e+00 -6.536119e+05
Averages over the last 21 of 41 rows, steps 6860000 to 6960000:
PotEng KinEng Press Temp Volume Enthalpy Density TotEng
-664493 10874.9 -3.21321 620.005 2.45049e+06 -653623 7.12068 -653618
Loop time of 2316.73 on 76 procs for 200000 steps with 135696 atoms

	unfix	rest
Loop 12; succeeded temp 620 target 1000
	variable Temp1 equal 620
	variable Temp2 equal 620+47.5
next		hloop
jump		SELF l3
	fix     heat all npt temp 620 667.5 0.1 iso 0 0 0.1
	run	380000
Step PotEng KinEng Press Temp Volume Enthalpy Density TotEng
6960000 -6.645223e+05  1.088148e+04  2.222085e+02  6.203780e+02  2.449893e+06 -6.533010e+05  7.122424e+00 -6.536408e+05
Averages over the last 39 of 77 rows, steps 7150000 to 7340000:
PotEng KinEng Press Temp Volume Enthalpy Density TotEng
-663800 11499.9 18.3108 655.633 2.45294e+06 -652272 7.11357 -652300
Loop time of 4426.05 on 76 procs for 380000 steps with 135696 atoms

	write_restart data/restart.heat_msr
System init for write_restart ...
	unfix	heat
	fix	rest all npt temp 667.5 667.5 0.1 iso 0 0 0.1
	run     200000
Step PotEng KinEng Press Temp Volume Enthalpy Density TotEng
7340000 -6.635687e+05  1.171230e+04 -2.137654e+02  6.677448e+02  2.454357e+06 -6.521839e+05  7.109472e+00 -6.518564e+05
Averages over the last 21 of 41 rows, steps 7440000 to 7540000:
PotEng KinEng Press Temp Volume Enthalpy Density TotEng
-663560 11707.6 40.0186 667.477 2.45376e+06 -651791 7.1112 -651852
Loop time of 2301.75 on 76 procs for 200000 steps with 135696 atoms

	unfix	rest
Loop 13; succeeded temp 667.5 target 1000
	variable Temp1 equal 667.5
	variable Temp2 equal 667.5+47.5
next		hloop
jump		SELF l3
	fix     heat all npt temp 667.5 715 0.1 iso 0 0 0.1
	run	380000
Step PotEng KinEng Press Temp Volume Enthalpy Density TotEng
7540000 -6.635254e+05  1.174674e+04  2.302209e+02  6.697083e+02  2.453195e+06 -6.514262e+05  7.112837e+00 -6.517787e+05
Averages over the last 39 of 77 rows, steps 7730000 to 7920000:
PotEng KinEng Press Temp Volume Enthalpy Density TotEng
-662820 12329.6 17.7787 702.941 2.45662e+06 -650463 7.10291 -650490
Loop time of 4406.43 on 76 procs for 380000 steps with 135696 atoms

	write_restart data/restart.heat_msr
System init for write_restart ...
	unfix	heat
	fix	rest all npt temp 715 715 0.1 iso 0 0 0.1
	run     200000
Step PotEng KinEng Press Temp Volume Enthalpy Density TotEng
7920000 -6.625445e+05  1.252169e+04 -1.140395e+02  7.138901e+02  2.458027e+06 -6.501978e+05  7.098856e+00 -6.500228e+05
Averages over the last 21 of 41 rows, steps 8020000 to 8120000:
PotEng KinEng Press Temp Volume Enthalpy Density TotEng
-662578 12541.2 37.7449 715.004 2.45752e+06 -649979 7.10031 -650037
Loop time of 2342.34 on 76 procs for 200000 steps with 135696 atoms

	unfix	rest
Loop 14; succeeded temp 715 target 1000
	variable Temp1 equal 715
	variable Temp2 equal 715+47.5
next		hloop
jump		SELF l3
	fix     heat all npt temp 715 762.5 0.1 iso 0 0 0.1
	run	380000
Step PotEng KinEng Press Temp Volume Enthalpy Density TotEng
8120000 -6.625391e+05  1.249811e+04 -1.353894e+02  7.125456e+02  2.458226e+06 -6.502487e+05  7.098282e+00 -6.500410e+05
Averages over the last 39 of 77 rows, steps 8310000 to 8500000:
PotEng KinEng Press Temp Volume Enthalpy Density TotEng
-661825 13170.3 -11.7274 750.866 2.46025e+06 -648673 7.09243 -648655
Loop time of 4425.68 on 76 procs for 380000 steps with 135696 atoms

	write_restart data/restart.heat_msr
System init for write_restart ...
	unfix	heat
	fix	rest all npt temp 762.5 762.5 0.1 iso 0 0 0.1
	run     200000
Step PotEng KinEng Press Temp Volume Enthalpy Density TotEng
8500000 -6.616012e+05  1.339590e+04 -8.168545e+01  7.637308e+02  2.461389e+06 -6.483308e+05  7.089158e+00 -6.482053e+05
Averages over the last 21 of 41 rows, steps 8600000 to 8700000:
PotEng KinEng Press Temp Volume Enthalpy Density TotEng
-661569 13373.3 12.0607 762.44 2.46095e+06 -648178 7.09042 -648196
Loop time of 2314.93 on 76 procs for 200000 steps with 135696 atoms

	unfix	rest
Loop 15; succeeded temp 762.5 target 1000
	variable Temp1 equal 762.5
	variable Temp2 equal 762.5+47.5
next		hloop
jump		SELF l3
	fix     heat all npt temp 762.5 810 0.1 iso 0 0 0.1
	run	380000
Step PotEng KinEng Press Temp Volume Enthalpy Density TotEng
8700000 -6.615360e+05  1.340030e+04 -4.313990e+02  7.639816e+02  2.462312e+06 -6.487987e+05  7.086502e+00 -6.481357e+05
Averages over the last 39 of 77 rows, steps 8890000 to 9080000:
PotEng KinEng Press Temp Volume Enthalpy Density TotEng
-660713 13991.3 20.7609 797.675 2.46397e+06 -646690 7.08173 -646722
Loop time of 4431.61 on 76 procs for 380000 steps with 135696 atoms

	write_restart data/restart.heat_msr
System init for write_restart ...
	unfix	heat
	fix	rest all npt temp 810 810 0.1 iso 0 0 0.1
	run     200000
Step PotEng KinEng Press Temp Volume Enthalpy Density TotEng
9080000 -6.603975e+05  1.419402e+04  1.500965e+02  8.092334e+02  2.464513e+06 -6.459726e+05  7.080173e+00 -6.462035e+05
Averages over the last 21 of 41 rows, steps 9180000 to 9280000:
PotEng KinEng Press Temp Volume Enthalpy Density TotEng
-660295 14201.4 19.0455 809.656 2.46512e+06 -646064 7.07844 -646093
Loop time of 2329.93 on 76 procs for 200000 steps with 135696 atoms

	unfix	rest
Loop 16; succeeded temp 810 target 1000
	variable Temp1 equal 810
	variable Temp2 equal 810+47.5
next		hloop
jump		SELF l3
	fix     heat all npt temp 810 857.5 0.1 iso 0 0 0.1
	run	380000
Step PotEng KinEng Press Temp Volume Enthalpy Density TotEng
9280000 -6.603173e+05  1.424671e+04  2.985253e+02  8.122375e+02  2.464370e+06 -6.456114e+05  7.080583e+00 -6.460706e+05
Averages over the last 39 of 77 rows, steps 9470000 to 9660000:
PotEng KinEng Press Temp Volume Enthalpy Density TotEng
-659183 14840.9 90.4628 846.111 2.46847e+06 -644203 7.06882 -644343
Loop time of 4466.79 on 76 procs for 380000 steps with 135696 atoms

	write_restart data/restart.heat_msr
System init for write_restart ...
	unfix	heat
	fix	rest all npt temp 857.5 857.5 0.1 iso 0 0 0.1
	run     200000
Step PotEng KinEng Press Temp Volume Enthalpy Density TotEng
9660000 -6.587933e+05  1.510852e+04  3.602857e+02  8.613709e+02  2.468916e+06 -6.431296e+05  7.067547e+00 -6.436848e+05
Averages over the last 21 of 41 rows, steps 9760000 to 9860000:
PotEng KinEng Press Temp Volume Enthalpy Density TotEng
-658407 15038.6 -8.9221 857.383 2.47051e+06 -643382 7.06297 -643368
Loop time of 2338.66 on 76 procs for 200000 steps with 135696 atoms

	unfix	rest
Loop 17; succeeded temp 857.5 target 1000
	variable Temp1 equal 857.5
	variable Temp2 equal 857.5+47.5
next		hloop
jump		SELF l3
	fix     heat all npt temp 857.5 905 0.1 iso 0 0 0.1
	run	380000
Step PotEng KinEng Press Temp Volume Enthalpy Density TotEng
9860000 -6.583050e+05  1.506670e+04  5.116403e+01  8.589869e+02  2.470488e+06 -6.431594e+05  7.063051e+00 -6.432383e+05
Averages over the last 39 of 77 rows, steps 10050000 to 10240000:
PotEng KinEng Press Temp Volume Enthalpy Density TotEng
-656889 15666.5 -3.77455 893.18 2.47457e+06 -641228 7.05139 -641222
Loop time of 4477.83 on 76 procs for 380000 steps with 135696 atoms

	write_restart data/restart.heat_msr
System init for write_restart ...
	unfix	heat
	fix	rest all npt temp 905 905 0.1 iso 0 0 0.1
	run     200000
Step PotEng KinEng Press Temp Volume Enthalpy Density TotEng
10240000 -6.564755e+05  1.593559e+04  5.126395e+01  9.085240e+02  2.475488e+06 -6.404607e+05  7.048782e+00 -6.405399e+05
Averages over the last 21 of 41 rows, steps 10340000 to 10440000:
PotEng KinEng Press Temp Volume Enthalpy Density TotEng
-656349 15864.5 -5.53022 904.472 2.47598e+06 -640493 7.04738 -640484
Loop time of 2364.59 on 76 procs for 200000 steps with 135696 atoms

	unfix	rest
Loop 18; succeeded temp 905 target 1000
	variable Temp1 equal 905
	variable Temp2 equal 905+47.5
next		hloop
jump		SELF l3
	fix     heat all npt temp 905 952.5 0.1 iso 0 0 0.1
	run	380000
Step PotEng KinEng Press Temp Volume Enthalpy Density TotEng
10440000 -6.563119e+05  1.581674e+04  1.499664e+02  9.017483e+02  2.476105e+06 -6.402633e+05  7.047027e+00 -6.404951e+05
Averages over the last 39 of 77 rows, steps 10630000 to 10820000:
PotEng KinEng Press Temp Volume Enthalpy Density TotEng
-655176 16509.5 7.6953 941.243 2.47953e+06 -638655 7.03728 -638667
Loop time of 4497 on 76 procs for 380000 steps with 135696 atoms

	write_restart data/restart.heat_msr
System init for write_restart ...
	unfix	heat
	fix	rest all npt temp 952.5 952.5 0.1 iso 0 0 0.1
	run     200000
Step PotEng KinEng Press Temp Volume Enthalpy Density TotEng
10820000 -6.548730e+05  1.673143e+04 -2.765583e+02  9.538968e+02  2.480992e+06 -6.385698e+05  7.033146e+00 -6.381416e+05
Averages over the last 21 of 41 rows, steps 10920000 to 11020000:
PotEng KinEng Press Temp Volume Enthalpy Density TotEng
-654739 16713.6 -33.6985 952.882 2.48093e+06 -638078 7.03333 -638026
Loop time of 2386.8 on 76 procs for 200000 steps with 135696 atoms

	unfix	rest
Loop 19; succeeded temp 952.5 target 1000
	variable Temp1 equal 952.5
	variable Temp2 equal 952.5+47.5
next		hloop
jump		SELF l3
	fix     heat all npt temp 952.5 1000 0.1 iso 0 0 0.1
	run	380000
Step PotEng KinEng Press Temp Volume Enthalpy Density TotEng
11020000 -6.547151e+05  1.666717e+04 -2.549175e+02  9.502331e+02  2.481723e+06 -6.384428e+05  7.031073e+00 -6.380480e+05
Averages over the last 39 of 77 rows, steps 11210000 to 11400000:
PotEng KinEng Press Temp Volume Enthalpy Density TotEng
-653582 17332.3 49.9683 988.151 2.48417e+06 -636172 7.02414 -636250
Loop time of 4569.05 on 76 procs for 380000 steps with 135696 atoms

	write_restart data/restart.heat_msr
System init for write_restart ...
	unfix	heat
	fix	rest all npt temp 1000 1000 0.1 iso 0 0 0.1
	run     200000
Step PotEng KinEng Press Temp Volume Enthalpy Density TotEng
11400000 -6.531610e+05  1.759350e+04 -1.531186e+02  1.003045e+03  2.486521e+06 -6.358051e+05  7.017507e+00 -6.355675e+05
Averages over the last 21 of 41 rows, steps 11500000 to 11600000:
PotEng KinEng Press Temp Volume Enthalpy Density TotEng
-653143 17549.1 -7.49951 1000.51 2.48571e+06 -635605 7.0198 -635594
Loop time of 2390.33 on 76 procs for 200000 steps with 135696 atoms

	unfix	rest
Loop 20; succeeded temp 1000 target 1000
	variable Temp1 equal 1000
	variable Temp2 equal 1000+47.5
next		hloop
jump		SELF l3

#variable	st equal $(step)
#write_restart 	data/restart.heat_msr

#--------------------------------------------------------------------------------OUTPUT
variable        clusfile string "data/data.msr_dsc"               #output to save progress and to allow import to future simulations
variable        reclusfile string "data/restart.msr_dsc"
write_data      data/data.msr_dsc
System init for write_data ...
write_restart   data/restart.msr_dsc
System init for write_restart ...
