LAMMPS (29 Oct 2020)
##################################################################
##IN.CLUSTER_ANNEAL_DATA					##
##Anneal and segregate already prepared amorphous cluster	##
##Dependencies	: none						##
##Influences: /data						##
##################################################################
## ver. : 2020-07-17, Syamal Praneeth Chilakalapudi, KIT, INT	##
##Author Email    :syamalpraneeth@gmail.com			##
##################################################################

#--------------------------------------------------------------VARIABLES FROM COMMAND LINE
variable        pot string Cu-Zr_4.eam.fs
next            args
variable        e1 string Cu
next            args
variable        e2 string Zr
next            args
variable        x equal 50
next            args
variable        y equal 50
variable        frac equal $y/($x+$y)
variable        frac equal 50/($x+$y)
variable        frac equal 50/(50+$y)
variable        frac equal 50/(50+50)
next            args
variable        T1 equal 200000
next            args
variable	heat_ramp equal 0.25

variable        th equal 200000/40
variable        df equal 200000/20

variable	lat equal 3.6				#lattice parameter to define spacings

variable	T_hot equal 2000
variable	T_cool equal 50
variable	T_heat equal 1000
variable	ht equal (1000-50)*((10^3)/(0.25))

variable        t1 equal 200000/10
variable        t equal 3800000/25
variable        ht_inter equal (3800000/10)

#--------------------------------------------------------------------------------INTIALISE
units           metal					#fundamental LAMMPS and MD conditions initialization
dimension       3
atom_style      atomic
boundary        p p p
lattice		bcc 3.6
Lattice spacing in x,y,z = 3.6000000 3.6000000 3.6000000

read_restart	../restart.msr_20
Reading restart file ...
  restart file = 29 Oct 2020, LAMMPS = 29 Oct 2020
  restoring atom style atomic from restart
  orthogonal box = (-32.899909 -32.894461 -32.901225) to (101.28037 101.28365 101.28218)
  pair style eam/fs stores no restart info
  135696 atoms
  read_restart CPU = 0.074 seconds

neigh_modify	every 1 delay 0 check yes

newton		on
pair_style	eam/fs					#EAM potentials best for metallic systems
pair_coeff      * * Cu-Zr_4.eam.fs Cu Zr Cu Zr
reset_timestep  0

info groups fixes variables regions

#-----------------------------------------------------------------FIXES FOR SUBSTRATE
fix             corint all property/atom i_int

#--------------------------------------------------------------------------------COMPUTES
compute         c1 all temp
compute_modify  c1 dynamic/dof yes extra/dof 0		#It seemed like a dynamic evaluation was better
compute		c2 all pe/atom

#--------------------------------------------------------------------------------THERMO
thermo_style    custom step pe ke press temp vol enthalpy density etotal #c_c5 c_c6 #c_c4
thermo_modify   format float "% .6e"
thermo_modify   temp c1
thermo          5000
timestep        0.0010					#standard timestep 1fs for metallic systems

write_dump all custom dump_msr.atom id type x y z vx vy vz i_int
dump            d1 all custom 10000 data/lammpstrj.dep.msr id type x y z vx vy vz i_int

#--------------------------------------------------------------------------------BALANCE AND EQUILIBRATE
comm_style	tiled					#to allow for rcb style (weighted balancing) of balancing of atoms across processors
balance		1.0 rcb out data/tmp.balance1_msr	#rebalance atoms on processors after deleting atoms outside sphere
Balancing ...
  update every 1 steps, delay 0 steps, check yes
 rebalancing time: 0.027 seconds
  iteration count = 0
  initial/final maximal load/proc = 1813.0000 1787.0000
  initial/final imbalance factor  = 1.0154168 1.0008549

#write_restart   data/restart.equilib_1_msr
#unfix		hold

#-------------------------------------------------------------------------------HEATING
variable	loopsiz equal 20
variable	dT equal (1000-50)/20
variable	Temp1 equal 50
variable	Temp2 equal 50+47.5
variable        tstop equal 0+3800000

variable	hloop loop 20
label		l3
	fix     heat all npt temp 50 97.5 0.1 iso 0 0 0.1
	run	380000
Step PotEng KinEng Press Temp Volume Enthalpy Density TotEng
0 -6.747940e+05  8.765437e+02  1.711649e+01  4.997374e+01  2.415846e+06 -6.738916e+05  7.222804e+00 -6.739174e+05
Averages over the last 39 of 77 rows, steps 190000 to 380000:
PotEng KinEng Press Temp Volume Enthalpy Density TotEng
-674176 1501.96 12.9608 85.6303 2.41769e+06 -672655 7.2173 -672674
Loop time of 4385.08 on 76 procs for 380000 steps with 135696 atoms

	write_restart data/restart.heat_msr
System init for write_restart ...
	unfix	heat
	fix	rest all npt temp 97.5 97.5 0.1 iso 0 0 0.1
	run     200000
Step PotEng KinEng Press Temp Volume Enthalpy Density TotEng
380000 -6.739772e+05  1.716500e+03 -1.948393e+01  9.786158e+01  2.418445e+06 -6.722901e+05  7.215041e+00 -6.722607e+05
Averages over the last 21 of 41 rows, steps 480000 to 580000:
PotEng KinEng Press Temp Volume Enthalpy Density TotEng
-673987 1709.52 5.79066 97.4635 2.41835e+06 -672269 7.21531 -672278
Loop time of 2222.91 on 76 procs for 200000 steps with 135696 atoms

	unfix	rest
Loop 1; succeeded temp 97.5 target 1000
	variable Temp1 equal 97.5
	variable Temp2 equal 97.5+47.5
next		hloop
jump		SELF l3
	fix     heat all npt temp 97.5 145 0.1 iso 0 0 0.1
	run	380000
Step PotEng KinEng Press Temp Volume Enthalpy Density TotEng
580000 -6.739861e+05  1.707690e+03 -6.394760e+01  9.735928e+01  2.418499e+06 -6.723750e+05  7.214879e+00 -6.722784e+05
Averages over the last 39 of 77 rows, steps 770000 to 960000:
PotEng KinEng Press Temp Volume Enthalpy Density TotEng
-673371 2335.19 -26.3308 133.134 2.42037e+06 -671075 7.2093 -671036
Loop time of 4265.14 on 76 procs for 380000 steps with 135696 atoms

	write_restart data/restart.heat_msr
System init for write_restart ...
	unfix	heat
	fix	rest all npt temp 145 145 0.1 iso 0 0 0.1
	run     200000
Step PotEng KinEng Press Temp Volume Enthalpy Density TotEng
960000 -6.731657e+05  2.535767e+03 -7.688245e+01  1.445699e+02  2.421162e+06 -6.707462e+05  7.206945e+00 -6.706300e+05
Averages over the last 21 of 41 rows, steps 1060000 to 1160000:
PotEng KinEng Press Temp Volume Enthalpy Density TotEng
-673187 2542.72 -15.3589 144.966 2.42096e+06 -670667 7.20756 -670644
Loop time of 2264.31 on 76 procs for 200000 steps with 135696 atoms

	unfix	rest
Loop 2; succeeded temp 145 target 1000
	variable Temp1 equal 145
	variable Temp2 equal 145+47.5
next		hloop
jump		SELF l3
	fix     heat all npt temp 145 192.5 0.1 iso 0 0 0.1
	run	380000
Step PotEng KinEng Press Temp Volume Enthalpy Density TotEng
1160000 -6.731969e+05  2.542665e+03 -1.559142e+02  1.449631e+02  2.421186e+06 -6.708899e+05  7.206872e+00 -6.706542e+05
Averages over the last 39 of 77 rows, steps 1350000 to 1540000:
PotEng KinEng Press Temp Volume Enthalpy Density TotEng
-672564 3167.14 10.4572 180.566 2.42298e+06 -669381 7.20154 -669397
Loop time of 4292.48 on 76 procs for 380000 steps with 135696 atoms

	write_restart data/restart.heat_msr
System init for write_restart ...
	unfix	heat
	fix	rest all npt temp 192.5 192.5 0.1 iso 0 0 0.1
	run     200000
Step PotEng KinEng Press Temp Volume Enthalpy Density TotEng
1540000 -6.723620e+05  3.375012e+03 -1.333530e+02  1.924171e+02  2.423888e+06 -6.691887e+05  7.198837e+00 -6.689870e+05
Averages over the last 21 of 41 rows, steps 1640000 to 1740000:
PotEng KinEng Press Temp Volume Enthalpy Density TotEng
-672358 3378.03 2.4358 192.589 2.42371e+06 -668977 7.19937 -668980
Loop time of 2268.21 on 76 procs for 200000 steps with 135696 atoms

	unfix	rest
Loop 3; succeeded temp 192.5 target 1000
	variable Temp1 equal 192.5
	variable Temp2 equal 192.5+47.5
next		hloop
jump		SELF l3
	fix     heat all npt temp 192.5 240 0.1 iso 0 0 0.1
	run	380000
Step PotEng KinEng Press Temp Volume Enthalpy Density TotEng
1740000 -6.723473e+05  3.368295e+03 -2.370015e+02  1.920341e+02  2.424508e+06 -6.693377e+05  7.196997e+00 -6.689790e+05
Averages over the last 39 of 77 rows, steps 1930000 to 2120000:
PotEng KinEng Press Temp Volume Enthalpy Density TotEng
-671733 3998.38 8.51547 227.956 2.42574e+06 -667722 7.19334 -667735
Loop time of 4336.26 on 76 procs for 380000 steps with 135696 atoms

	write_restart data/restart.heat_msr
System init for write_restart ...
	unfix	heat
	fix	rest all npt temp 240 240 0.1 iso 0 0 0.1
	run     200000
Step PotEng KinEng Press Temp Volume Enthalpy Density TotEng
2120000 -6.715192e+05  4.198618e+03  7.404732e+01  2.393727e+02  2.426454e+06 -6.672085e+05  7.191225e+00 -6.673206e+05
Averages over the last 21 of 41 rows, steps 2220000 to 2320000:
PotEng KinEng Press Temp Volume Enthalpy Density TotEng
-671532 4209.64 3.15567 240.001 2.42641e+06 -667317 7.19135 -667322
Loop time of 2328.36 on 76 procs for 200000 steps with 135696 atoms

	unfix	rest
Loop 4; succeeded temp 240 target 1000
	variable Temp1 equal 240
	variable Temp2 equal 240+47.5
next		hloop
jump		SELF l3
	fix     heat all npt temp 240 287.5 0.1 iso 0 0 0.1
	run	380000
Step PotEng KinEng Press Temp Volume Enthalpy Density TotEng
2320000 -6.715292e+05  4.208214e+03  2.027341e+02  2.399198e+02  2.426129e+06 -6.670140e+05  7.192190e+00 -6.673210e+05
Averages over the last 39 of 77 rows, steps 2510000 to 2700000:
PotEng KinEng Press Temp Volume Enthalpy Density TotEng
-670896 4834.93 27.937 275.65 2.42846e+06 -666019 7.18528 -666061
Loop time of 4380.29 on 76 procs for 380000 steps with 135696 atoms

	write_restart data/restart.heat_msr
System init for write_restart ...
	unfix	heat
	fix	rest all npt temp 287.5 287.5 0.1 iso 0 0 0.1
	run     200000
Step PotEng KinEng Press Temp Volume Enthalpy Density TotEng
2700000 -6.706855e+05  5.058854e+03 -1.093112e+02  2.884167e+02  2.429717e+06 -6.657924e+05  7.181568e+00 -6.656266e+05
Averages over the last 21 of 41 rows, steps 2800000 to 2900000:
PotEng KinEng Press Temp Volume Enthalpy Density TotEng
-670690 5045.22 27.5128 287.64 2.42916e+06 -665604 7.18321 -665645
Loop time of 2273.69 on 76 procs for 200000 steps with 135696 atoms

	unfix	rest
Loop 5; succeeded temp 287.5 target 1000
	variable Temp1 equal 287.5
	variable Temp2 equal 287.5+47.5
next		hloop
jump		SELF l3
	fix     heat all npt temp 287.5 335 0.1 iso 0 0 0.1
	run	380000
Step PotEng KinEng Press Temp Volume Enthalpy Density TotEng
2900000 -6.706869e+05  5.045802e+03  1.188350e+02  2.876726e+02  2.428990e+06 -6.654610e+05  7.183717e+00 -6.656411e+05
Averages over the last 39 of 77 rows, steps 3090000 to 3280000:
PotEng KinEng Press Temp Volume Enthalpy Density TotEng
-670032 5667.67 -41.3616 323.127 2.43152e+06 -664427 7.17624 -664365
Loop time of 4299.53 on 76 procs for 380000 steps with 135696 atoms

	write_restart data/restart.heat_msr
System init for write_restart ...
	unfix	heat
	fix	rest all npt temp 335 335 0.1 iso 0 0 0.1
	run     200000
Step PotEng KinEng Press Temp Volume Enthalpy Density TotEng
3280000 -6.698330e+05  5.883254e+03 -1.133221e+02  3.354176e+02  2.432383e+06 -6.641218e+05  7.173696e+00 -6.639497e+05
Averages over the last 21 of 41 rows, steps 3380000 to 3480000:
PotEng KinEng Press Temp Volume Enthalpy Density TotEng
-669833 5880.55 -16.689 335.263 2.43221e+06 -663978 7.1742 -663953
Loop time of 2274.07 on 76 procs for 200000 steps with 135696 atoms

	unfix	rest
Loop 6; succeeded temp 335 target 1000
	variable Temp1 equal 335
	variable Temp2 equal 335+47.5
next		hloop
jump		SELF l3
	fix     heat all npt temp 335 382.5 0.1 iso 0 0 0.1
	run	380000
Step PotEng KinEng Press Temp Volume Enthalpy Density TotEng
3480000 -6.698320e+05  5.887222e+03  1.334654e+02  3.356439e+02  2.431804e+06 -6.637423e+05  7.175406e+00 -6.639448e+05
Averages over the last 39 of 77 rows, steps 3670000 to 3860000:
PotEng KinEng Press Temp Volume Enthalpy Density TotEng
-669172 6500.37 -10.8505 370.601 2.43431e+06 -662688 7.16801 -662672
Loop time of 4347.04 on 76 procs for 380000 steps with 135696 atoms

	write_restart data/restart.heat_msr
System init for write_restart ...
	unfix	heat
	fix	rest all npt temp 382.5 382.5 0.1 iso 0 0 0.1
	run     200000
Step PotEng KinEng Press Temp Volume Enthalpy Density TotEng
3860000 -6.689651e+05  6.705559e+03 -2.619126e+02  3.822992e+02  2.435611e+06 -6.626577e+05  7.164188e+00 -6.622596e+05
Averages over the last 21 of 41 rows, steps 3960000 to 4060000:
PotEng KinEng Press Temp Volume Enthalpy Density TotEng
-668960 6709.22 -20.4822 382.508 2.43508e+06 -662281 7.16576 -662250
Loop time of 2300.17 on 76 procs for 200000 steps with 135696 atoms

	unfix	rest
Loop 7; succeeded temp 382.5 target 1000
	variable Temp1 equal 382.5
	variable Temp2 equal 382.5+47.5
next		hloop
jump		SELF l3
	fix     heat all npt temp 382.5 430 0.1 iso 0 0 0.1
	run	380000
Step PotEng KinEng Press Temp Volume Enthalpy Density TotEng
4060000 -6.689442e+05  6.722178e+03 -2.458515e+02  3.832466e+02  2.435621e+06 -6.625957e+05  7.164159e+00 -6.622220e+05
Averages over the last 39 of 77 rows, steps 4250000 to 4440000:
PotEng KinEng Press Temp Volume Enthalpy Density TotEng
-668291 7336.97 51.088 418.298 2.43723e+06 -660877 7.15942 -660954
Loop time of 4350.34 on 76 procs for 380000 steps with 135696 atoms

	write_restart data/restart.heat_msr
System init for write_restart ...
	unfix	heat
	fix	rest all npt temp 430 430 0.1 iso 0 0 0.1
	run     200000
Step PotEng KinEng Press Temp Volume Enthalpy Density TotEng
4440000 -6.680514e+05  7.544922e+03 -1.188534e+02  4.301531e+02  2.438406e+06 -6.606874e+05  7.155978e+00 -6.605065e+05
Averages over the last 21 of 41 rows, steps 4540000 to 4640000:
PotEng KinEng Press Temp Volume Enthalpy Density TotEng
-668080 7540.03 -4.46392 429.874 2.43815e+06 -660547 7.15672 -660540
Loop time of 2283.81 on 76 procs for 200000 steps with 135696 atoms

	unfix	rest
Loop 8; succeeded temp 430 target 1000
	variable Temp1 equal 430
	variable Temp2 equal 430+47.5
next		hloop
jump		SELF l3
	fix     heat all npt temp 430 477.5 0.1 iso 0 0 0.1
	run	380000
Step PotEng KinEng Press Temp Volume Enthalpy Density TotEng
4640000 -6.680738e+05  7.521842e+03 -2.200207e+02  4.288372e+02  2.439043e+06 -6.608869e+05  7.154108e+00 -6.605520e+05
Averages over the last 39 of 77 rows, steps 4830000 to 5020000:
PotEng KinEng Press Temp Volume Enthalpy Density TotEng
-667415 8167.34 -4.40644 465.639 2.44037e+06 -659254 7.15021 -659247
Loop time of 4367.57 on 76 procs for 380000 steps with 135696 atoms
